Circuit: * C:\users\desires\Mis Documentos\Digital\servoMotor\servo.asc

Fatal Error: Unknown subcircuit called in:
   xu1 n001 n002 n003 nmos_t2n7002bk tip31c
